Version 4
SHEET 1 3252 1380
WIRE -1248 -1328 -1440 -1328
WIRE -1168 -1328 -1248 -1328
WIRE -1088 -1328 -1168 -1328
WIRE -784 -1328 -832 -1328
WIRE -704 -1328 -784 -1328
WIRE -576 -1328 -704 -1328
WIRE -1472 -448 -2288 -448
WIRE -1872 -304 -1872 -384
WIRE 1712 -288 1552 -288
WIRE 2080 -288 1712 -288
WIRE -1872 -224 -1872 -304
WIRE -2288 -208 -2288 -448
WIRE -2288 -176 -2400 -176
WIRE 1712 -176 1712 -208
WIRE 1760 -176 1712 -176
WIRE 1984 -176 1904 -176
WIRE 2288 -176 2208 -176
WIRE -1872 -144 -1872 -224
WIRE 1760 -112 1712 -112
WIRE 2288 -96 2288 -176
WIRE 2464 -96 2432 -96
WIRE 1632 -80 1552 -80
WIRE 1760 -80 1712 -80
WIRE 2080 -64 2080 -288
WIRE 2096 -64 2080 -64
WIRE 2288 -64 2176 -64
WIRE 2464 -64 2432 -64
WIRE -1872 -48 -1872 -144
WIRE 1760 -48 1536 -48
WIRE 2288 -32 2256 -32
WIRE 2480 -32 2432 -32
WIRE 2560 -32 2480 -32
WIRE 1760 -16 1616 -16
WIRE 2288 0 2256 0
WIRE 1760 16 1696 16
WIRE -1872 32 -1872 -48
WIRE 368 96 288 96
WIRE -1872 112 -1872 32
WIRE -1536 112 -1680 112
WIRE 1232 112 1152 112
WIRE -1536 144 -1536 112
WIRE -1472 144 -1472 -448
WIRE -1472 144 -1536 144
WIRE 480 160 480 -96
WIRE 656 160 480 160
WIRE 1008 160 736 160
WIRE 2912 160 2848 160
WIRE -1872 192 -1872 112
WIRE -1808 192 -1872 192
WIRE 288 192 288 176
WIRE 368 192 288 192
WIRE 1152 208 1152 192
WIRE 1232 208 1152 208
WIRE 2960 224 2960 176
WIRE 2992 224 2960 224
WIRE 3056 224 2992 224
WIRE 3120 224 3056 224
WIRE -1680 256 -1680 208
WIRE -1296 288 -1296 128
WIRE -1120 288 -1152 288
WIRE -1472 320 -1472 144
WIRE -1296 320 -1472 320
WIRE -1120 320 -1152 320
WIRE -1296 352 -1328 352
WIRE -1104 352 -1152 352
WIRE -1024 352 -1104 352
WIRE -1296 384 -1328 384
WIRE 2336 384 2256 384
WIRE 2736 384 2336 384
WIRE 2912 384 2912 304
WIRE 2912 384 2896 384
WIRE 1008 400 1008 160
WIRE 1536 400 1008 400
WIRE 2416 416 2256 416
WIRE 2736 416 2416 416
WIRE 2496 448 2256 448
WIRE 2736 448 2496 448
WIRE -1536 480 -1536 144
WIRE -1536 480 -1872 480
WIRE 2096 480 2080 480
WIRE 2576 480 2256 480
WIRE 2736 480 2576 480
WIRE 1536 496 1536 400
WIRE -1792 512 -1872 512
WIRE -1712 512 -1792 512
WIRE -1056 560 -1168 560
WIRE 2080 560 2080 480
WIRE 1536 576 1536 496
WIRE 1536 576 1280 576
WIRE -1088 592 -1168 592
WIRE -1008 592 -1088 592
WIRE 1760 640 1536 640
WIRE 2032 640 1760 640
WIRE 1280 704 1280 640
WIRE 2080 704 2080 656
WIRE 1760 816 1760 640
WIRE 1664 896 1552 896
WIRE 1696 896 1664 896
WIRE 1712 896 1696 896
WIRE 1664 928 1664 896
WIRE 2480 944 2416 944
WIRE 1472 1024 1472 896
WIRE 1424 1088 1296 1088
WIRE 1696 1152 1696 896
WIRE 2992 1152 2992 224
WIRE 2992 1152 1696 1152
FLAG -2368 -208 0
FLAG -1248 -1264 0
FLAG -1168 -1264 0
FLAG -960 -1232 0
FLAG -784 -1264 0
FLAG -704 -1264 0
FLAG -1440 -1248 0
FLAG -576 -1328 VCC
FLAG -2160 -16 VCC
FLAG -2160 16 0
FLAG -1936 -384 Q2
FLAG -1936 -304 Q5
FLAG 736 64 DIS
FLAG 736 96 THRES
FLAG 736 224 THRES
FLAG 736 32 VCC
FLAG 800 128 0
FLAG 656 224 0
FLAG 368 96 DIS_SYS
FLAG 368 192 THRES_SYS
FLAG 288 16 VCC
FLAG 656 32 DIS_SYS
FLAG 656 192 THRES_SYS
FLAG 656 64 THRES_SYS
FLAG 592 96 0
FLAG 480 -96 SYSTEM_CLOCK
FLAG -1024 352 VCC
FLAG -1152 384 0
FLAG -1104 416 0
FLAG -1024 416 0
FLAG -1376 288 0
FLAG -1328 352 C0
FLAG -1328 384 C1
FLAG -1120 288 C2
FLAG -1120 320 C3
FLAG -2288 -144 Q1
FLAG -2288 -112 Q2
FLAG -2288 -80 Q3
FLAG -2288 -48 Q4
FLAG -2288 -16 Q5
FLAG -2288 16 Q6
FLAG -2160 -208 Q7
FLAG -2160 -176 Q8
FLAG -2160 -144 Q9
FLAG -2160 -112 Q10
FLAG -2160 -80 Q11
FLAG -2160 -48 Q12
FLAG -2480 -176 SYSTEM_CLOCK
FLAG -1360 128 VCC
FLAG -1936 -224 0
FLAG -1936 -144 0
FLAG -1936 -48 0
FLAG -1936 32 0
FLAG -1936 112 0
FLAG -1936 192 0
FLAG 656 128 VCC
FLAG 288 256 0
FLAG 1632 -112 VCC
FLAG 1904 16 0
FLAG 1552 -80 LOAD
FLAG 2560 -32 VCC
FLAG 2432 0 0
FLAG 2480 32 0
FLAG 2560 32 0
FLAG 2256 0 LOAD
FLAG 1680 -144 VCC
FLAG 2144 -176 VCC
FLAG 2208 -96 0
FLAG 2336 304 VCC
FLAG 2416 336 VCC
FLAG 2496 368 VCC
FLAG 2576 400 VCC
FLAG 2912 208 0
FLAG 1536 32 sq0
FLAG 1616 64 sq1
FLAG 1696 96 sq2
FLAG 1984 -96 sq3
FLAG 2096 256 sq0
FLAG 2096 288 sq1
FLAG 2096 320 sq2
FLAG 2096 352 sq3
FLAG 2896 608 sq0
FLAG 2896 576 sq1
FLAG 2896 544 sq2
FLAG 2896 512 sq3
FLAG 2960 96 0
FLAG 2848 80 0
FLAG 2368 1008 0
FLAG 2480 1024 0
FLAG 1232 112 DIS
FLAG 1232 208 THRES
FLAG 1536 720 VCC
FLAG 1536 400 MOTOR_RESET
FLAG 1616 496 0
FLAG 1408 896 0
FLAG 1472 1104 VCC
FLAG 1296 1168 0
FLAG 1424 1040 0
FLAG 1664 1008 0
FLAG 1760 912 0
FLAG 1280 704 R
FLAG 3120 224 R
FLAG 3056 304 0
FLAG 1552 -288 MOTOR_CLOCK
FLAG 1152 32 VCC
FLAG 1904 -16 VCC
FLAG 736 192 MOTOR_CLOCK
FLAG 2080 704 0
FLAG 1152 272 0
FLAG -1536 112 HOUR_CLOCK
FLAG -1712 512 VCC
FLAG -1792 576 0
FLAG -1712 576 0
FLAG -1872 544 0
FLAG -1984 464 Q1
FLAG -1984 496 Q3
FLAG -1984 528 Q4
FLAG -1872 448 Q6
FLAG -1680 256 0
FLAG -1008 592 VCC
FLAG -1088 656 0
FLAG -1008 656 0
FLAG -1168 624 0
FLAG -1280 544 C0
FLAG -1280 576 C1
FLAG -1280 608 C2
FLAG -1168 528 C3
FLAG -1056 560 R
SYMBOL CD4040B -2224 -96 R0
WINDOW 39 0 160 Invisible 2
SYMATTR InstName U1
SYMATTR Value2 vdd=5 speed=1 tripdt=5n
SYMBOL PowerProducts\\LT1086-5 -960 -1328 R0
SYMATTR InstName U2
SYMBOL cap -1184 -1328 R0
SYMATTR InstName C1
SYMATTR Value 0.1µ
SYMATTR SpiceLine V=25 Irms=0 Rser=0.025 Lser=800p mfg="Würth Elektronik" pn="885012206071 WCAP-CSGP 0603" type="X7R"
SYMBOL cap -1264 -1328 R0
SYMATTR InstName C3
SYMATTR Value 10µ
SYMATTR SpiceLine V=25 Irms=0 Rser=0 Lser=0 mfg="Murata" pn="GRM21BR61E106KA73" type="X5R"
SYMBOL cap -720 -1328 R0
SYMATTR InstName C2
SYMATTR Value 0.1µ
SYMATTR SpiceLine V=25 Irms=0 Rser=0.025 Lser=800p mfg="Würth Elektronik" pn="885012206071 WCAP-CSGP 0603" type="X7R"
SYMBOL cap -800 -1328 R0
SYMATTR InstName C4
SYMATTR Value 10µ
SYMATTR SpiceLine V=25 Irms=0 Rser=0 Lser=0 mfg="Murata" pn="GRM21BR61E106KA73" type="X5R"
SYMBOL voltage -1440 -1344 R0
WINDOW 123 0 0 Left 0
WINDOW 39 24 44 Left 2
SYMATTR SpiceLine Rser=0.150
SYMATTR InstName V2
SYMATTR Value 8.4
SYMBOL diode -1936 -368 R270
WINDOW 0 32 32 Invisible 2
WINDOW 3 0 32 VBottom 2
SYMATTR InstName D5
SYMATTR Value 1N4148
SYMBOL diode -1936 -288 R270
WINDOW 0 32 32 Invisible 2
WINDOW 3 0 32 VBottom 2
SYMATTR InstName D6
SYMATTR Value 1N4148
SYMBOL diode -1936 -208 R270
WINDOW 0 32 32 Invisible 2
WINDOW 3 0 32 VBottom 2
SYMATTR InstName D7
SYMATTR Value 1N4148
SYMBOL diode -1936 -128 R270
WINDOW 0 32 32 Invisible 2
WINDOW 3 0 32 VBottom 2
SYMATTR InstName D8
SYMATTR Value 1N4148
SYMBOL diode -1936 -32 R270
WINDOW 0 32 32 Invisible 2
WINDOW 3 0 32 VBottom 2
SYMATTR InstName D9
SYMATTR Value 1N4148
SYMBOL diode -1936 48 R270
WINDOW 0 32 32 Invisible 2
WINDOW 3 0 32 VBottom 2
SYMATTR InstName D10
SYMATTR Value 1N4148
SYMBOL diode -1936 128 R270
WINDOW 0 32 32 Invisible 2
WINDOW 3 0 32 VBottom 2
SYMATTR InstName D11
SYMATTR Value 1N4148
SYMBOL diode -1936 208 R270
WINDOW 0 32 32 Invisible 2
WINDOW 3 0 32 VBottom 2
SYMATTR InstName D12
SYMATTR Value 1N4148
SYMBOL NE556_TRANSISTOR 688 128 R0
SYMATTR InstName U7
SYMBOL cap 800 112 R90
WINDOW 0 0 32 Invisible 2
WINDOW 3 27 -48 VBottom 2
SYMATTR InstName C9
SYMATTR Value 0.1µ
SYMATTR SpiceLine V=25 Irms=0 Rser=0.035 Lser=766p mfg="Würth Elektronik" pn="885012205085 WCAP-CSGP 0402" type="X7R"
SYMBOL res 272 0 R0
SYMATTR InstName R19
SYMATTR Value 8K
SYMATTR SpiceLine tol=1 pwr=0.25
SYMBOL res 272 80 R0
SYMATTR InstName R20
SYMATTR Value 68K
SYMATTR SpiceLine tol=1 pwr=0.1
SYMBOL cap 592 112 R270
WINDOW 0 4 -66 Invisible 2
WINDOW 3 33 -44 VBottom 2
SYMATTR InstName C12
SYMATTR Value 0.1µ
SYMATTR SpiceLine V=25 Irms=0 Rser=0.035 Lser=766p mfg="Würth Elektronik" pn="885012205085 WCAP-CSGP 0402" type="X7R"
SYMBOL 74HC393 -1232 336 R0
WINDOW 39 8 96 Invisible 2
SYMATTR InstName U8
SYMATTR Value2 vcc=5 speed=1 tripdt=5n
SYMBOL cap -1040 352 R0
WINDOW 0 36 31 Left 2
SYMATTR InstName C13
SYMATTR Value 0.1µ
SYMATTR SpiceLine V=25 Irms=0 Rser=0.025 Lser=800p mfg="Würth Elektronik" pn="885012206071 WCAP-CSGP 0603" type="X7R"
SYMBOL cap -1120 352 R0
WINDOW 0 36 31 Left 2
SYMATTR InstName C14
SYMATTR Value 10µ
SYMATTR SpiceLine V=25 Irms=0 Rser=0 Lser=0 mfg="Murata" pn="GRM21BR61E106KA73" type="X5R"
SYMBOL res -1280 272 R90
WINDOW 0 0 56 VBottom 2
WINDOW 3 -59 61 VTop 2
SYMATTR InstName R1
SYMATTR Value 10K
SYMBOL res -2272 -224 R90
WINDOW 0 0 56 VBottom 2
WINDOW 3 32 56 VTop 2
SYMATTR InstName R3
SYMATTR Value 100K
SYMATTR SpiceLine tol=1 pwr=0.1
SYMBOL res -2384 -192 R90
WINDOW 0 0 56 VBottom 2
WINDOW 3 32 56 VTop 2
SYMATTR InstName R4
SYMATTR Value 4.7K
SYMBOL cap -1296 112 R90
WINDOW 0 0 32 VBottom 2
WINDOW 3 32 32 VTop 2
SYMATTR InstName C15
SYMATTR Value 0.1µ
SYMATTR SpiceLine V=25 Irms=0 Rser=0.025 Lser=800p mfg="Würth Elektronik" pn="885012206071 WCAP-CSGP 0603" type="X7R"
SYMBOL cap 272 192 R0
WINDOW 3 24 57 Left 2
SYMATTR InstName C5
SYMATTR Value 10µ
SYMATTR Description Polarized Capacitor
SYMATTR Type polcap
SYMATTR SpiceLine V=25 Irms=0 Rser=0.0026 Lser=894p mfg="Würth Elektronik" pn="885012209028 WCAP-CSGP 1210" type="X7R"
SYMBOL 74HC164 1824 -80 R0
WINDOW 39 8 144 Invisible 2
SYMATTR InstName U3
SYMATTR Value2 vcc=5 speed=1 tripdt=5n
SYMBOL res 1728 -128 R90
WINDOW 0 30 168 VBottom 2
WINDOW 3 -30 172 VTop 2
SYMATTR InstName R5
SYMATTR Value 4.7K
SYMBOL 74HC393 2352 -48 R0
WINDOW 39 8 96 Invisible 2
SYMATTR InstName U4
SYMATTR Value2 vcc=5 speed=1 tripdt=5n
SYMBOL cap 2544 -32 R0
WINDOW 0 36 31 Left 2
SYMATTR InstName C6
SYMATTR Value 0.1µ
SYMATTR SpiceLine V=25 Irms=0 Rser=0.025 Lser=800p mfg="Würth Elektronik" pn="885012206071 WCAP-CSGP 0603" type="X7R"
SYMBOL cap 2464 -32 R0
WINDOW 0 36 31 Left 2
SYMATTR InstName C7
SYMATTR Value 10µ
SYMATTR SpiceLine V=25 Irms=0 Rser=0 Lser=0 mfg="Murata" pn="GRM21BR61E106KA73" type="X5R"
SYMBOL res 2304 -112 R90
WINDOW 0 0 56 VBottom 2
WINDOW 3 29 61 VTop 2
SYMATTR InstName R6
SYMATTR Value 10K
SYMBOL cap 2208 -192 R90
WINDOW 0 0 32 VBottom 2
WINDOW 3 32 32 VTop 2
SYMATTR InstName C8
SYMATTR Value 0.1µ
SYMATTR SpiceLine V=25 Irms=0 Rser=0.025 Lser=800p mfg="Würth Elektronik" pn="885012206071 WCAP-CSGP 0603" type="X7R"
SYMBOL res 1728 -96 R90
WINDOW 0 30 262 VBottom 2
WINDOW 3 1 306 VTop 2
SYMATTR InstName R7
SYMATTR Value 4.7K
SYMBOL res 1728 -192 R180
WINDOW 0 36 76 Left 2
WINDOW 3 36 40 Left 2
SYMATTR InstName R8
SYMATTR Value 4.7K
SYMBOL res 2192 -80 R90
WINDOW 0 0 56 VBottom 2
WINDOW 3 32 56 VTop 2
SYMATTR InstName R9
SYMATTR Value 4.7K
SYMBOL res 1776 -160 R90
WINDOW 0 29 168 VBottom 2
WINDOW 3 35 261 VTop 2
SYMATTR InstName R10
SYMATTR Value 4.7K
SYMBOL ULN2003 2176 368 R0
SYMATTR InstName U5
SYMBOL nmos 2032 560 R0
SYMATTR InstName F_NMOS1
SYMATTR Value AO6408
SYMBOL res 2320 288 R0
WINDOW 0 51 1 VRight 2
WINDOW 3 50 -31 VRight 2
SYMATTR InstName MOTOR1
SYMATTR Value 50
SYMATTR SpiceLine tol=1 pwr=10
SYMBOL res 2400 320 R0
WINDOW 0 51 1 VRight 2
WINDOW 3 51 -41 VRight 2
SYMATTR InstName MOTOR2
SYMATTR Value 50
SYMATTR SpiceLine tol=1 pwr=10
SYMBOL res 2480 352 R0
WINDOW 0 51 1 VRight 2
WINDOW 3 51 -41 VRight 2
SYMATTR InstName MOTOR3
SYMATTR Value 50
SYMATTR SpiceLine tol=1 pwr=10
SYMBOL res 2560 384 R0
WINDOW 0 51 1 VRight 2
WINDOW 3 51 -41 VRight 2
SYMATTR InstName MOTOR4
SYMATTR Value 50
SYMATTR SpiceLine tol=1 pwr=10
SYMBOL ULN2003 2816 496 R180
SYMATTR InstName U6
SYMBOL nmos 2960 304 R180
SYMATTR InstName R_NMOS1
SYMATTR Value AO6408
SYMBOL res 1520 -64 R0
SYMATTR InstName R11
SYMATTR Value 4.7K
SYMATTR SpiceLine tol=1 pwr=0.25
SYMBOL res 1600 -32 R0
SYMATTR InstName R12
SYMATTR Value 4.7K
SYMATTR SpiceLine tol=1 pwr=0.25
SYMBOL res 1680 0 R0
SYMATTR InstName R13
SYMATTR Value 4.7K
SYMATTR SpiceLine tol=1 pwr=0.25
SYMBOL res 1968 -192 R0
SYMATTR InstName R14
SYMATTR Value 4.7K
SYMATTR SpiceLine tol=1 pwr=0.25
SYMBOL sw 2960 80 R0
WINDOW 3 46 49 Left 2
SYMATTR Value switch
SYMATTR InstName R_PHOTO1
SYMBOL voltage 2848 64 R0
WINDOW 0 -168 56 Left 2
WINDOW 3 -15 -32 Left 2
WINDOW 123 0 0 Left 0
WINDOW 39 0 0 Left 0
SYMATTR InstName R_EMITTER1
SYMATTR Value PWL(6 0 6.1 5 6.5 5 6.6 0)
SYMBOL sw 2368 1024 R180
WINDOW 3 44 61 Left 2
SYMATTR Value switch
SYMATTR InstName F_PHOTO1
SYMBOL voltage 2480 1040 R180
WINDOW 0 -167 63 Left 2
WINDOW 3 -333 16 Left 2
SYMATTR InstName F_EMITTER1
SYMATTR Value PWL(6 0 6.1 5 6.5 5 6.6 0)
SYMBOL res 1136 16 R0
SYMATTR InstName R15
SYMATTR Value 8K
SYMBOL res 1136 96 R0
SYMATTR InstName R16
SYMATTR Value 68K
SYMATTR SpiceLine tol=1 pwr=0.1
SYMBOL res 1520 624 R0
SYMATTR InstName R17
SYMATTR Value 4.7K
SYMATTR SpiceLine tol=1 pwr=0.25
SYMBOL diode 1552 640 R180
WINDOW 0 -61 30 Left 2
WINDOW 3 24 0 Left 2
SYMATTR InstName D16
SYMATTR Value 1N4148
SYMBOL diode 1296 640 R180
WINDOW 0 24 64 Left 2
WINDOW 3 24 0 Left 2
SYMATTR InstName D17
SYMATTR Value 1N4148
SYMBOL res 1632 480 R90
WINDOW 0 0 56 VBottom 2
WINDOW 3 32 56 VTop 2
SYMATTR InstName R18
SYMATTR Value 10K
SYMATTR SpiceLine tol=1 pwr=0.25
SYMBOL nmos 1712 816 R0
SYMATTR InstName F_NMOS2
SYMATTR Value AO6408
SYMBOL polcap 1472 880 R90
WINDOW 0 0 32 VBottom 2
WINDOW 3 32 32 VTop 2
SYMATTR InstName C11
SYMATTR Value 100µ
SYMATTR Description Capacitor
SYMATTR Type cap
SYMATTR SpiceLine V=25 Irms=300m Rser=0.284 Lser=21.232n mfg="Würth Elektronik" pn="865080449011 WCAP-ASLI 8x6,5" type="Al electrolytic"
SYMBOL res 1568 880 R90
WINDOW 0 0 56 VBottom 2
WINDOW 3 32 56 VTop 2
SYMATTR InstName R21
SYMATTR Value 4.7K
SYMATTR SpiceLine tol=1 pwr=0.25
SYMBOL sw 1472 1008 R0
SYMATTR InstName S1
SYMATTR Value switch
SYMBOL voltage 1296 1072 R0
WINDOW 0 -173 49 Left 2
WINDOW 3 -44 149 Left 2
WINDOW 123 0 0 Left 0
WINDOW 39 0 0 Left 0
SYMATTR InstName EnableDelay1
SYMATTR Value PWL(5 0)
SYMBOL res 1680 1024 R180
WINDOW 0 36 76 Left 2
WINDOW 3 36 40 Left 2
SYMATTR InstName R22
SYMATTR Value 10K
SYMATTR SpiceLine tol=1 pwr=0.25
SYMBOL res 3040 208 R0
SYMATTR InstName R23
SYMATTR Value 10K
SYMBOL cap 1136 208 R0
SYMATTR InstName C10
SYMATTR Value 100µ
SYMATTR SpiceLine V=25 Irms=0 Rser=0.0039 Lser=550p
SYMBOL res -1712 176 R90
WINDOW 0 0 56 VBottom 2
WINDOW 3 32 56 VTop 2
SYMATTR InstName R26
SYMATTR Value 4.7K
SYMBOL 74HC21 -1936 496 R0
WINDOW 39 8 96 Invisible 2
SYMATTR InstName U9
SYMATTR Value2 vcc=5 speed=1 tripdt=5n
SYMBOL cap -1728 512 R0
WINDOW 0 36 31 Left 2
SYMATTR InstName C16
SYMATTR Value 0.1µ
SYMATTR SpiceLine V=25 Irms=0 Rser=0.025 Lser=800p mfg="Würth Elektronik" pn="885012206071 WCAP-CSGP 0603" type="X7R"
SYMBOL cap -1808 512 R0
WINDOW 0 36 31 Left 2
SYMATTR InstName C17
SYMATTR Value 10µ
SYMATTR SpiceLine V=25 Irms=0 Rser=0 Lser=0 mfg="Murata" pn="GRM21BR61E106KA73" type="X5R"
SYMBOL nmos -1728 112 R0
SYMATTR InstName M1
SYMATTR Value AO6408
SYMBOL 74HC21 -1232 576 R0
WINDOW 39 8 96 Invisible 2
SYMATTR InstName U10
SYMATTR Value2 vcc=5 speed=1 tripdt=5n
SYMBOL cap -1024 592 R0
WINDOW 0 36 31 Left 2
SYMATTR InstName C18
SYMATTR Value 0.1µ
SYMATTR SpiceLine V=25 Irms=0 Rser=0.025 Lser=800p mfg="Würth Elektronik" pn="885012206071 WCAP-CSGP 0603" type="X7R"
SYMBOL cap -1104 592 R0
WINDOW 0 36 31 Left 2
SYMATTR InstName C19
SYMATTR Value 10µ
SYMATTR SpiceLine V=25 Irms=0 Rser=0 Lser=0 mfg="Murata" pn="GRM21BR61E106KA73" type="X5R"
TEXT -2056 -1384 Left 2 !.tran 0 1000 0 10 uic\n \n.options reltol=0.01 abstol=1n chgtol=1p\n.options gmin=1n cshunt=1p\n.options itl1=500 itl2=5000 itl4=100\n \n.include cd4000.lib\n.include 74hc.lib\n \n.model switch SW(ron=0.01 roff=1MEG vt=4.9 vh=0)
TEXT -1176 144 Left 2 ;74HC393\nCLK = LOW to HIGH\nCLEAR = HIGH
TEXT -2624 800 Left 2 ;Test Pulse at 3600 (111000010000) Little Endian\n1s: 5 10 11 12  \n0s: 1 2 3 4 6 7 8 9
TEXT 1784 104 Left 2 ;74HC164\nCLK = LOW to HIGH\nCLE = ACTIVE LOW
TEXT 2280 72 Left 2 ;74HC393\nCLK = LOW to HIGH\nCLEAR = HIGH
RECTANGLE Normal 3248 1376 144 -528 2
RECTANGLE Normal -656 1168 -2624 -624 2
