Version 4
SHEET 1 880 680
WIRE -208 -144 -432 -144
WIRE 176 -144 48 -144
WIRE -176 64 -288 64
WIRE -64 64 -96 64
WIRE 80 64 -64 64
WIRE 400 112 400 16
WIRE 448 112 400 112
WIRE 400 288 400 112
WIRE 400 288 240 288
FLAG -432 -64 0
FLAG -80 -48 0
FLAG 176 -144 VCC
FLAG -288 64 VCC
FLAG 400 -64 VCC
FLAG 80 288 0
FLAG 448 112 CTRL
FLAG -64 192 0
SYMBOL ULN2003 160 176 R0
SYMATTR InstName U1
SYMBOL PowerProducts\\LT1086-5 -80 -144 R0
SYMATTR InstName U2
SYMBOL voltage -432 -160 R0
WINDOW 123 0 0 Left 0
WINDOW 39 0 0 Left 0
SYMATTR InstName V1
SYMATTR Value 8.4
SYMBOL res 384 -80 R0
SYMATTR InstName R1
SYMATTR Value 4.7K
SYMBOL res -80 48 R90
WINDOW 0 0 56 VBottom 2
WINDOW 3 32 56 VTop 2
SYMATTR InstName R2
SYMATTR Value 50K
SYMBOL diode -80 64 R0
SYMATTR InstName D1
SYMATTR Value 1N4148
SYMBOL polcap -80 128 R0
WINDOW 3 24 56 Left 2
SYMATTR InstName C1
SYMATTR Value 680µ
SYMATTR Description Capacitor
SYMATTR Type cap
SYMATTR SpiceLine V=25 Irms=1.57 Rser=0.022 Lser=7.357n mfg="Würth Elektronik" pn="860080475018 WCAP-ATLI 10x20" type="Al electrolytic"
TEXT -464 352 Left 2 !.tran 0 500 0 1 uic
